test_networks/archived/ieee729_1ph/Loads.dss
! Specifying Loads as Model 1 and 2 type loads. For no CVR, Model 2 loads will be blank
New load.S5P Bus=5.1 Phases=1 Model=1 kV=12.66 kW=8.31 kVAr=2.77 Vminpu=0.90 Vmaxpu=1.10 Daily=LoadShapeLoadDefault
New load.S12P Bus=12.1 Phases=1 Model=1 kV=0.24 kW=7.34 kVAr=2.45 Vminpu=0.90 Vmaxpu=1.10 Daily=LoadShapeLoadDefault
New load.S13P Bus=13.1 Phases=1 Model=1 kV=0.24 kW=6.91 kVAr=2.30 Vminpu=0.90 Vmaxpu=1.10 Daily=LoadShapeLoadDefault
New load.S14P Bus=14.1 Phases=1 Model=1 kV=0.24 kW=8.76 kVAr=2.92 Vminpu=0.90 Vmaxpu=1.10 Daily=LoadShapeLoadDefault
New load.S15P Bus=15.1 Phases=1 Model=1 kV=0.24 kW=9.12 kVAr=3.04 Vminpu=0.90 Vmaxpu=1.10 Daily=LoadShapeLoadDefault